&nhyd_model
   config_start_time = '2000-03-01_00:00:00'
   config_init_case = 0 
/

&dimensions
   config_nvertlevels = 75 
/

&vertical_grid
   config_ztop = 40000.0
/

&decomposition
   config_block_decomp_file_prefix = 'x1.40962.graph.info.part.' 
/
